Edit "Vsource.source bus1=sourcebus basekv=2.0 enabled=True
New "Line.Nome Elemento" bus1=sourcebus bus2=bb1 Season=1 Ratings=[400,] emergamps=600 normamps=100.0 x1=1e-05 B1=0.001 x0=1e-05 B0=0.001 r0=0.001 length=1.0 r1=0.001 enabled=True
New "Load.Nome Elemento (1)" bus1=bb1 phases=3 kW=121.35816 pf=1.0 NumCust=1.0 kV=2.0 enabled=True
New "Load.Carico1" bus1=bb1 phases=3 kW=303.3954 pf=1.0 NumCust=1.0 kV=2.0 enabled=True
New "Generator.Nome Elemento (1) (1)" bus1=sourcebus phases=3 kW=1.0 kW=284.460255 kv=2.0 enabled=True
