New "Transformer.125" buses=['Nodo_1_AC', 'Nodo_2_DC'] windings=2 conns=[delta, wye, ] %Rs=[0, 0, ] XHL=1E-009 %imag=0 kVs=[0.4, 2.0] kVAs=1000.0 enabled=True
New "Load.AC-Load_1" bus1=Nodo_1_AC phases=3 kV=0.4 kW=500.0 NumCust=1.0 pf=1.0 enabled=True
New "Load.DC-Load_1" bus1=Nodo_2_DC phases=3 pf=1 kV=2.0 kW=100.0 NumCust=1.0 enabled=True
New "Generator.DC-Wind_1" bus1=Nodo_2_DC phases=3 kvar=0 model=3 kv=2.0 kW=100.0 enabled=True
New "Transformer.Tr1" buses=['sourcebus', 'Nodo_1_AC'] windings=2 conns=[delta, wye, ] %imag=0 %Rs=0 kVs=[20.0, 0.4] kVAs=600.0 XHL=0.5 enabled=True
Edit "Vsource.source bus1=sourcebus basekv=20.0 enabled=True
New "Line.Line1_AC" bus1=Nodo_1_AC bus2=Nodo_3_AC Season=1 Ratings=[400,] emergamps=600 r1=0.0 normamps=100.0 x1=1e-05 x0=1e-05 r0=0.001 B0=0.001 length=1.0 B1=0.001 enabled=True
