New "Load.a_10_ac-load" bus1=bus_n15 phases=3 pf=0.9939 NumCust=1.0 kV=20.0 kW=42.208267752000005 enabled=True
New "Line.a_10_line" bus1=bus_n12 bus2=bus_n13 Season=1 Ratings=[400,] emergamps=600 C1=1e-09 x0=1e-09 r0=0 x1=1e-09 length=0.1 normamps=244.0 r1=0 B1=1e-09 B0=1e-09 C0=1e-09 enabled=True
New "Load.a_11_ac-load" bus1=bus_n16 phases=3 pf=0.9939 NumCust=1.0 kV=20.0 kW=42.208267752000005 enabled=True
New "Line.a_11_line" bus1=bus_n13 bus2=bus_n14 Season=1 Ratings=[400,] emergamps=600 C1=1e-09 x0=1e-09 r0=0 x1=1e-09 length=0.1 normamps=244.0 r1=0 B1=1e-09 B0=1e-09 C0=1e-09 enabled=True
New "Load.a_12_ac-load" bus1=bus_n17 phases=3 pf=0.9939 NumCust=1.0 kV=20.0 kW=26.380167345 enabled=True
New "Line.a_12_line" bus1=bus_n14 bus2=bus_n15 Season=1 Ratings=[400,] emergamps=600 C1=1e-09 x0=1e-09 r0=0 x1=1e-09 length=0.1 normamps=244.0 r1=0 B1=1e-09 B0=1e-09 C0=1e-09 enabled=True
New "Load.a_13_ac-load" bus1=bus_n18 phases=3 pf=0.9939 NumCust=1.0 kV=20.0 kW=26.380167345 enabled=True
New "Line.a_13_line" bus1=bus_n16 bus2=bus_n17 Season=1 Ratings=[400,] emergamps=600 C1=1e-09 x0=1e-09 r0=0 x1=1e-09 length=0.1 normamps=244.0 r1=0 B1=1e-09 B0=1e-09 C0=1e-09 enabled=True
New "Load.a_14_ac-load" bus1=bus_n19 phases=3 pf=0.9939 NumCust=1.0 kV=20.0 kW=42.208267752000005 enabled=True
New "Line.a_14_line" bus1=bus_n17 bus2=bus_n18 Season=1 Ratings=[400,] emergamps=600 C1=1e-09 x0=1e-09 r0=0 x1=1e-09 length=0.1 normamps=166.0 r1=0 B1=1e-09 B0=1e-09 C0=1e-09 enabled=True
New "Load.a_15_ac-load" bus1=bus_n20 phases=3 pf=0.9939 NumCust=1.0 kV=20.0 kW=42.208267752000005 enabled=True
New "Line.a_15_line" bus1=bus_n17 bus2=bus_n19 Season=1 Ratings=[400,] emergamps=600 C1=1e-09 x0=1e-09 r0=0 x1=1e-09 length=0.1 normamps=244.0 r1=0 B1=1e-09 B0=1e-09 C0=1e-09 enabled=True
New "Load.a_16_ac-load" bus1=bus_n21 phases=3 pf=0.9939 NumCust=1.0 kV=20.0 kW=42.208267752000005 enabled=True
New "Line.a_16_line" bus1=bus_n19 bus2=bus_n20 Season=1 Ratings=[400,] emergamps=600 C1=1e-09 x0=1e-09 r0=0 x1=1e-09 length=0.4226 normamps=244.0 r1=0 B1=1e-09 B0=1e-09 C0=1e-09 enabled=True
New "Load.a_17_ac-load" bus1=bus_n22 phases=3 pf=0.9939 NumCust=1.0 kV=20.0 kW=26.380167345 enabled=True
New "Line.a_17_line" bus1=bus_n20 bus2=bus_n21 Season=1 Ratings=[400,] emergamps=600 C1=1e-09 x0=1e-09 r0=0 x1=1e-09 length=0.1 normamps=244.0 r1=0 B1=1e-09 B0=1e-09 C0=1e-09 enabled=True
New "Load.a_18_ac-load" bus1=bus_n23 phases=3 pf=0.9939 NumCust=1.0 kV=20.0 kW=26.380167345 enabled=True
New "Line.a_18_line" bus1=bus_n21 bus2=bus_n22 Season=1 Ratings=[400,] emergamps=600 C1=1e-09 x0=1e-09 r0=0 x1=1e-09 length=0.304 normamps=244.0 r1=0 B1=1e-09 B0=1e-09 C0=1e-09 enabled=True
New "Load.a_19_ac-load" bus1=bus_n24 phases=3 pf=0.9939 NumCust=1.0 kV=20.0 kW=26.380167345 enabled=True
New "Line.a_19_line" bus1=bus_n22 bus2=bus_n23 Season=1 Ratings=[400,] emergamps=600 C1=1e-09 x0=1e-09 r0=0 x1=1e-09 length=0.21 normamps=244.0 r1=0 B1=1e-09 B0=1e-09 C0=1e-09 enabled=True
New "Load.a_1_ac-load" bus1=bus_n6 phases=3 pf=0.9939 NumCust=1.0 kV=20.0 kW=42.208267752000005 enabled=True
New "Load.a_20_ac-load" bus1=bus_n25 phases=3 pf=0.9939 NumCust=1.0 kV=20.0 kW=26.380167345 enabled=True
New "Line.a_20_line" bus1=bus_n23 bus2=bus_n24 Season=1 Ratings=[400,] emergamps=600 C1=1e-09 x0=1e-09 r0=0 x1=1e-09 length=0.53 normamps=244.0 r1=0 B1=1e-09 B0=1e-09 C0=1e-09 enabled=True
New "Load.a_21_ac-load" bus1=bus_n26 phases=3 pf=0.9939 NumCust=1.0 kV=20.0 kW=26.380167345 enabled=True
New "Line.a_21_line" bus1=bus_n24 bus2=bus_n25 Season=1 Ratings=[400,] emergamps=600 C1=1e-09 x0=1e-09 r0=0 x1=1e-09 length=0.1 normamps=244.0 r1=0 B1=1e-09 B0=1e-09 C0=1e-09 enabled=True
New "Load.a_22_ac-load" bus1=bus_n27 phases=3 pf=0.9939 NumCust=1.0 kV=20.0 kW=42.208267752000005 enabled=True
New "Line.a_22_line" bus1=bus_n21 bus2=bus_n26 Season=1 Ratings=[400,] emergamps=600 C1=1e-09 x0=1e-09 r0=0 x1=1e-09 length=0.2052 normamps=244.0 r1=0 B1=1e-09 B0=1e-09 C0=1e-09 enabled=True
New "Load.a_23_ac-load" bus1=bus_n28 phases=3 pf=0.9939 NumCust=1.0 kV=20.0 kW=26.380167345 enabled=True
New "Line.a_23_line" bus1=bus_n19 bus2=bus_n27 Season=1 Ratings=[400,] emergamps=600 C1=1e-09 x0=1e-09 r0=0 x1=1e-09 length=0.0725 normamps=244.0 r1=0 B1=1e-09 B0=1e-09 C0=1e-09 enabled=True
New "Load.a_24_ac-load" bus1=bus_n29 phases=3 pf=0.9939 NumCust=1.0 kV=20.0 kW=42.208267752000005 enabled=True
New "Line.a_24_line" bus1=bus_n27 bus2=bus_n28 Season=1 Ratings=[400,] emergamps=600 C1=1e-09 x0=1e-09 r0=0 x1=1e-09 length=0.3865 normamps=244.0 r1=0 B1=1e-09 B0=1e-09 C0=1e-09 enabled=True
New "Load.a_25_ac-load" bus1=bus_n30 phases=3 pf=0.9939 NumCust=1.0 kV=20.0 kW=42.208267752000005 enabled=True
New "Line.a_25_line" bus1=bus_n28 bus2=bus_n29 Season=1 Ratings=[400,] emergamps=600 C1=1e-09 x0=1e-09 r0=0 x1=1e-09 length=0.376 normamps=244.0 r1=0 B1=1e-09 B0=1e-09 C0=1e-09 enabled=True
New "Load.a_26_ac-load" bus1=bus_n31 phases=3 pf=0.9939 NumCust=1.0 kV=20.0 kW=42.208267752000005 enabled=True
New "Line.a_26_line" bus1=bus_n30 bus2=bus_n31 Season=1 Ratings=[400,] emergamps=600 C1=1e-09 x0=1e-09 r0=0 x1=1e-09 length=0.1 normamps=244.0 r1=0 B1=1e-09 B0=1e-09 C0=1e-09 enabled=True
New "Load.a_27_ac-load" bus1=bus_n32 phases=3 pf=0.9939 NumCust=1.0 kV=20.0 kW=42.208267752000005 enabled=True
New "Line.a_27_line" bus1=bus_n31 bus2=bus_n32 Season=1 Ratings=[400,] emergamps=600 C1=1e-09 x0=1e-09 r0=0 x1=1e-09 length=0.1 normamps=244.0 r1=0 B1=1e-09 B0=1e-09 C0=1e-09 enabled=True
New "Load.a_28_ac-load" bus1=bus_n33 phases=3 pf=0.9939 NumCust=1.0 kV=20.0 kW=26.380167345 enabled=True
New "Line.a_28_line" bus1=bus_n32 bus2=bus_n33 Season=1 Ratings=[400,] emergamps=600 C1=1e-09 x0=1e-09 r0=0 x1=1e-09 length=0.1 normamps=244.0 r1=0 B1=1e-09 B0=1e-09 C0=1e-09 enabled=True
New "Load.a_29_ac-load" bus1=bus_n34 phases=3 pf=0.9939 NumCust=1.0 kV=20.0 kW=26.380167345 enabled=True
New "Line.a_29_line" bus1=bus_n33 bus2=bus_n34 Season=1 Ratings=[400,] emergamps=600 C1=1e-09 x0=1e-09 r0=0 x1=1e-09 length=0.471 normamps=244.0 r1=0 B1=1e-09 B0=1e-09 C0=1e-09 enabled=True
New "Load.a_2_ac-load" bus1=bus_n7 phases=3 pf=0.9939 NumCust=1.0 kV=20.0 kW=42.208267752000005 enabled=True
New "Load.a_30_ac-load" bus1=bus_n35 phases=3 pf=0.9939 NumCust=1.0 kV=20.0 kW=42.208267752000005 enabled=True
New "Line.a_30_line" bus1=bus_n35 bus2=bus_n36 Season=1 Ratings=[400,] emergamps=600 C1=1e-09 x0=1e-09 r0=0 x1=1e-09 length=0.1 normamps=244.0 r1=0 B1=1e-09 B0=1e-09 C0=1e-09 enabled=True
New "Load.a_31_ac-load" bus1=bus_n36 phases=3 pf=0.9939 NumCust=1.0 kV=20.0 kW=42.208267752000005 enabled=True
New "Line.a_31_line" bus1=bus_n35 bus2=bus_n37 Season=1 Ratings=[400,] emergamps=600 C1=1e-09 x0=1e-09 r0=0 x1=1e-09 length=0.1 normamps=244.0 r1=0 B1=1e-09 B0=1e-09 C0=1e-09 enabled=True
New "Load.a_32_ac-load" bus1=bus_n37 phases=3 pf=0.9936 NumCust=1.0 kV=20.0 kW=33.21946999 enabled=True
New "Line.a_32_line" bus1=bus_n37 bus2=bus_n38 Season=1 Ratings=[400,] emergamps=600 C1=1e-09 x0=1e-09 r0=0 x1=1e-09 length=0.1 normamps=244.0 r1=0 B1=1e-09 B0=1e-09 C0=1e-09 enabled=True
New "Load.a_33_ac-load" bus1=bus_n38 phases=3 pf=0.9939 NumCust=1.0 kV=20.0 kW=42.208267752000005 enabled=True
New "Line.a_33_line" bus1=bus_n38 bus2=bus_n39 Season=1 Ratings=[400,] emergamps=600 C1=1e-09 x0=1e-09 r0=0 x1=1e-09 length=0.1 normamps=166.0 r1=0 B1=1e-09 B0=1e-09 C0=1e-09 enabled=True
New "Load.a_34_ac-load" bus1=bus_n39 phases=3 pf=0.9939 NumCust=1.0 kV=20.0 kW=26.380167345 enabled=True
New "Line.a_34_line" bus1=bus_n39 bus2=bus_n40 Season=1 Ratings=[400,] emergamps=600 C1=1e-09 x0=1e-09 r0=0 x1=1e-09 length=0.1 normamps=166.0 r1=0 B1=1e-09 B0=1e-09 C0=1e-09 enabled=True
New "Load.a_35_ac-load" bus1=bus_n40 phases=3 pf=0.9939 NumCust=1.0 kV=20.0 kW=10.552066938000001 enabled=True
New "Line.a_35_line" bus1=bus_n40 bus2=bus_n41 Season=1 Ratings=[400,] emergamps=600 C1=1e-09 x0=1e-09 r0=0 x1=1e-09 length=0.1 normamps=166.0 r1=0 B1=1e-09 B0=1e-09 C0=1e-09 enabled=True
New "Load.a_36_ac-load" bus1=bus_n41 phases=3 pf=0.9938 NumCust=1.0 kV=20.0 kW=16.85399580375 enabled=True
New "Line.a_36_line" bus1=bus_n41 bus2=bus_n42 Season=1 Ratings=[400,] emergamps=600 C1=1e-09 x0=1e-09 r0=0 x1=1e-09 length=0.1 normamps=117.0 r1=0 B1=1e-09 B0=1e-09 C0=1e-09 enabled=True
New "Load.a_37_ac-load" bus1=bus_n42 phases=3 pf=0.9938 NumCust=1.0 kV=20.0 kW=16.85399580375 enabled=True
New "Line.a_37_line" bus1=bus_n29 bus2=bus_n43 Season=1 Ratings=[400,] emergamps=600 C1=1e-09 x0=1e-09 r0=0 x1=1e-09 length=0.1 normamps=244.0 r1=0 B1=1e-09 B0=1e-09 C0=1e-09 enabled=True
New "Load.a_38_ac-load" bus1=bus_n43 phases=3 pf=0.9939 NumCust=1.0 kV=20.0 kW=26.380167345 enabled=True
New "Line.a_38_line" bus1=bus_n43 bus2=bus_n44 Season=1 Ratings=[400,] emergamps=600 C1=1e-09 x0=1e-09 r0=0 x1=1e-09 length=0.1 normamps=244.0 r1=0 B1=1e-09 B0=1e-09 C0=1e-09 enabled=True
New "Load.a_39_ac-load" bus1=bus_n44 phases=3 pf=0.9939 NumCust=1.0 kV=20.0 kW=52.76033469 enabled=True
New "Line.a_39_line" bus1=bus_n45 bus2=bus_n5 Season=1 Ratings=[400,] emergamps=600 C1=1e-09 x0=1e-09 r0=0 x1=1e-09 length=1.0 normamps=400.0 r1=0 B1=1e-09 B0=1e-09 C0=1e-09 enabled=True
New "Load.a_3_ac-load" bus1=bus_n8 phases=3 pf=0.9939 NumCust=1.0 kV=20.0 kW=42.208267752000005 enabled=True
New "Line.a_3_line" bus1=bus_n5 bus2=bus_n6 Season=1 Ratings=[400,] emergamps=600 C1=1e-09 x0=1e-09 r0=0 x1=1e-09 length=0.137 normamps=278.0 r1=0 B1=1e-09 B0=1e-09 C0=1e-09 enabled=True
New "Load.a_4_ac-load" bus1=bus_n9 phases=3 pf=0.9939 NumCust=1.0 kV=20.0 kW=26.380167345 enabled=True
New "Line.a_4_line" bus1=bus_n6 bus2=bus_n7 Season=1 Ratings=[400,] emergamps=600 C1=1e-09 x0=1e-09 r0=0 x1=1e-09 length=0.2755 normamps=278.0 r1=0 B1=1e-09 B0=1e-09 C0=1e-09 enabled=True
New "Load.a_5_ac-load" bus1=bus_n10 phases=3 pf=0.9939 NumCust=1.0 kV=20.0 kW=42.208267752000005 enabled=True
New "Line.a_5_line" bus1=bus_n7 bus2=bus_n8 Season=1 Ratings=[400,] emergamps=600 C1=1e-09 x0=1e-09 r0=0 x1=1e-09 length=0.1 normamps=244.0 r1=0 B1=1e-09 B0=1e-09 C0=1e-09 enabled=True
New "Load.a_6_ac-load" bus1=bus_n11 phases=3 pf=0.9939 NumCust=1.0 kV=20.0 kW=26.380167345 enabled=True
New "Line.a_6_line" bus1=bus_n8 bus2=bus_n9 Season=1 Ratings=[400,] emergamps=600 C1=1e-09 x0=1e-09 r0=0 x1=1e-09 length=0.1 normamps=244.0 r1=0 B1=1e-09 B0=1e-09 C0=1e-09 enabled=True
New "Load.a_7_ac-load" bus1=bus_n12 phases=3 pf=0.9939 NumCust=1.0 kV=20.0 kW=42.208267752000005 enabled=True
New "Line.a_7_line" bus1=bus_n8 bus2=bus_n10 Season=1 Ratings=[400,] emergamps=600 C1=1e-09 x0=1e-09 r0=0 x1=1e-09 length=0.1 normamps=244.0 r1=0 B1=1e-09 B0=1e-09 C0=1e-09 enabled=True
New "Line.a_815s_line" bus1=bus_n3 bus2=bus_n45 Season=1 Ratings=[400,] emergamps=600 C1=1e-09 x0=1e-09 r0=0 x1=1e-09 length=0.001 normamps=400.0 r1=0 B1=1e-09 B0=1e-09 C0=1e-09 enabled=True
New "Line.a_816s_line" bus1=bus_n7 bus2=bus_n60 Season=1 Ratings=[400,] emergamps=600 C1=1e-09 x0=1e-09 r0=0 x1=1e-09 length=0.1 normamps=400.0 r1=0 B1=1e-09 B0=1e-09 C0=1e-09 enabled=True
New "Line.a_817s_line" bus1=bus_n7 bus2=bus_n48 Season=1 Ratings=[400,] emergamps=600 C1=1e-09 x0=1e-09 r0=0 x1=1e-09 length=0.287 normamps=400.0 r1=0 B1=1e-09 B0=1e-09 C0=1e-09 enabled=True
New "Line.a_818s_line" bus1=bus_n9 bus2=bus_n110 Season=1 Ratings=[400,] emergamps=600 C1=1e-09 x0=1e-09 r0=0 x1=1e-09 length=0.007 normamps=400.0 r1=0 B1=1e-09 B0=1e-09 C0=1e-09 enabled=True
New "Line.a_819s_line" bus1=bus_n12 bus2=bus_n164 Season=1 Ratings=[400,] emergamps=600 C1=1e-09 x0=1e-09 r0=0 x1=1e-09 length=0.5 normamps=400.0 r1=0 B1=1e-09 B0=1e-09 C0=1e-09 enabled=True
New "Line.a_820s_line" bus1=bus_n15 bus2=bus_n16 Season=1 Ratings=[400,] emergamps=600 C1=1e-09 x0=1e-09 r0=0 x1=1e-09 length=0.1 normamps=400.0 r1=0 B1=1e-09 B0=1e-09 C0=1e-09 enabled=True
New "Line.a_821s_line" bus1=bus_n15 bus2=bus_n136 Season=1 Ratings=[400,] emergamps=600 C1=1e-09 x0=1e-09 r0=0 x1=1e-09 length=0.1 normamps=400.0 r1=0 B1=1e-09 B0=1e-09 C0=1e-09 enabled=True
New "Line.a_822s_line" bus1=bus_n28 bus2=bus_n36 Season=1 Ratings=[400,] emergamps=600 C1=1e-09 x0=1e-09 r0=0 x1=1e-09 length=0.25 normamps=400.0 r1=0 B1=1e-09 B0=1e-09 C0=1e-09 enabled=True
New "Line.a_823s_line" bus1=bus_n29 bus2=bus_n30 Season=1 Ratings=[400,] emergamps=600 C1=1e-09 x0=1e-09 r0=0 x1=1e-09 length=0.221 normamps=400.0 r1=0 B1=1e-09 B0=1e-09 C0=1e-09 enabled=True
New "Line.a_825s_line" bus1=bus_n34 bus2=bus_n161 Season=1 Ratings=[400,] emergamps=600 C1=1e-09 x0=1e-09 r0=0 x1=1e-09 length=0.132 normamps=400.0 r1=0 B1=1e-09 B0=1e-09 C0=1e-09 enabled=True
New "Load.a_8_ac-load" bus1=bus_n13 phases=3 pf=0.9939 NumCust=1.0 kV=20.0 kW=42.208267752000005 enabled=True
New "Line.a_8_line" bus1=bus_n10 bus2=bus_n11 Season=1 Ratings=[400,] emergamps=600 C1=1e-09 x0=1e-09 r0=0 x1=1e-09 length=0.1 normamps=244.0 r1=0 B1=1e-09 B0=1e-09 C0=1e-09 enabled=True
New "Load.a_9_ac-load" bus1=bus_n14 phases=3 pf=0.9939 NumCust=1.0 kV=20.0 kW=42.208267752000005 enabled=True
New "Line.a_9_line" bus1=bus_n11 bus2=bus_n12 Season=1 Ratings=[400,] emergamps=600 C1=1e-09 x0=1e-09 r0=0 x1=1e-09 length=0.1 normamps=244.0 r1=0 B1=1e-09 B0=1e-09 C0=1e-09 enabled=True
New "Load.c_100_ac-load" bus1=bus_n92 phases=3 pf=0.9939 NumCust=1.0 kV=20.0 kW=43.087606663500004 enabled=True
New "Load.c_59_ac-load" bus1=bus_n68 phases=3 pf=0.9939 NumCust=1.0 kV=20.0 kW=86.17521332700001 enabled=True
New "Load.c_60_ac-load" bus1=bus_n96 phases=3 pf=0.9939 NumCust=1.0 kV=20.0 kW=43.087606663500004 enabled=True
New "Line.c_60_line" bus1=bus_n67 bus2=bus_n68 Season=1 Ratings=[400,] emergamps=600 C1=1e-09 x0=1e-09 r0=0 x1=1e-09 length=0.344 normamps=244.0 r1=0 B1=1e-09 B0=1e-09 C0=1e-09 enabled=True
New "Load.c_61_ac-load" bus1=bus_n97 phases=3 pf=0.9939 NumCust=1.0 kV=20.0 kW=43.087606663500004 enabled=True
New "Line.c_61_line" bus1=bus_n69 bus2=bus_n70 Season=1 Ratings=[400,] emergamps=600 C1=1e-09 x0=1e-09 r0=0 x1=1e-09 length=0.1 normamps=166.0 r1=0 B1=1e-09 B0=1e-09 C0=1e-09 enabled=True
New "Load.c_62_ac-load" bus1=bus_n98 phases=3 pf=0.9939 NumCust=1.0 kV=20.0 kW=26.929754164687502 enabled=True
New "Line.c_62_line" bus1=bus_n70 bus2=bus_n71 Season=1 Ratings=[400,] emergamps=600 C1=1e-09 x0=1e-09 r0=0 x1=1e-09 length=0.1 normamps=166.0 r1=0 B1=1e-09 B0=1e-09 C0=1e-09 enabled=True
New "Load.c_63_ac-load" bus1=bus_n99 phases=3 pf=0.9939 NumCust=1.0 kV=20.0 kW=43.087606663500004 enabled=True
New "Line.c_63_line" bus1=bus_n71 bus2=bus_n72 Season=1 Ratings=[400,] emergamps=600 C1=1e-09 x0=1e-09 r0=0 x1=1e-09 length=0.1 normamps=166.0 r1=0 B1=1e-09 B0=1e-09 C0=1e-09 enabled=True
New "Load.c_64_ac-load" bus1=bus_n100 phases=3 pf=0.9939 NumCust=1.0 kV=20.0 kW=26.929754164687502 enabled=True
New "Line.c_64_line" bus1=bus_n72 bus2=bus_n73 Season=1 Ratings=[400,] emergamps=600 C1=1e-09 x0=1e-09 r0=0 x1=1e-09 length=0.1 normamps=166.0 r1=0 B1=1e-09 B0=1e-09 C0=1e-09 enabled=True
New "Load.c_65_ac-load" bus1=bus_n101 phases=3 pf=0.9939 NumCust=1.0 kV=20.0 kW=43.087606663500004 enabled=True
New "Line.c_65_line" bus1=bus_n73 bus2=bus_n74 Season=1 Ratings=[400,] emergamps=600 C1=1e-09 x0=1e-09 r0=0 x1=1e-09 length=0.1 normamps=166.0 r1=0 B1=1e-09 B0=1e-09 C0=1e-09 enabled=True
New "Load.c_66_ac-load" bus1=bus_n102 phases=3 pf=0.9939 NumCust=1.0 kV=20.0 kW=43.087606663500004 enabled=True
New "Line.c_66_line" bus1=bus_n74 bus2=bus_n75 Season=1 Ratings=[400,] emergamps=600 C1=1e-09 x0=1e-09 r0=0 x1=1e-09 length=0.1 normamps=166.0 r1=0 B1=1e-09 B0=1e-09 C0=1e-09 enabled=True
New "Load.c_67_ac-load" bus1=bus_n103 phases=3 pf=0.9939 NumCust=1.0 kV=20.0 kW=26.929754164687502 enabled=True
New "Line.c_67_line" bus1=bus_n75 bus2=bus_n76 Season=1 Ratings=[400,] emergamps=600 C1=1e-09 x0=1e-09 r0=0 x1=1e-09 length=0.1 normamps=166.0 r1=0 B1=1e-09 B0=1e-09 C0=1e-09 enabled=True
New "Load.c_68_ac-load" bus1=bus_n104 phases=3 pf=0.9939 NumCust=1.0 kV=20.0 kW=43.087606663500004 enabled=True
New "Line.c_68_line" bus1=bus_n71 bus2=bus_n77 Season=1 Ratings=[400,] emergamps=600 C1=1e-09 x0=1e-09 r0=0 x1=1e-09 length=0.1 normamps=244.0 r1=0 B1=1e-09 B0=1e-09 C0=1e-09 enabled=True
New "Load.c_69_ac-load" bus1=bus_n105 phases=3 pf=0.9939 NumCust=1.0 kV=20.0 kW=43.087606663500004 enabled=True
New "Line.c_69_line" bus1=bus_n77 bus2=bus_n78 Season=1 Ratings=[400,] emergamps=600 C1=1e-09 x0=1e-09 r0=0 x1=1e-09 length=0.1 normamps=244.0 r1=0 B1=1e-09 B0=1e-09 C0=1e-09 enabled=True
New "Load.c_70_ac-load" bus1=bus_n106 phases=3 pf=0.9939 NumCust=1.0 kV=20.0 kW=43.087606663500004 enabled=True
New "Line.c_70_line" bus1=bus_n78 bus2=bus_n79 Season=1 Ratings=[400,] emergamps=600 C1=1e-09 x0=1e-09 r0=0 x1=1e-09 length=0.308 normamps=166.0 r1=0 B1=1e-09 B0=1e-09 C0=1e-09 enabled=True
New "Load.c_71_ac-load" bus1=bus_n107 phases=3 pf=0.9939 NumCust=1.0 kV=20.0 kW=43.087606663500004 enabled=True
New "Line.c_71_line" bus1=bus_n78 bus2=bus_n80 Season=1 Ratings=[400,] emergamps=600 C1=1e-09 x0=1e-09 r0=0 x1=1e-09 length=0.1 normamps=244.0 r1=0 B1=1e-09 B0=1e-09 C0=1e-09 enabled=True
New "Load.c_72_ac-load" bus1=bus_n69 phases=3 pf=0.9939 NumCust=1.0 kV=20.0 kW=43.087606663500004 enabled=True
New "Line.c_72_line" bus1=bus_n80 bus2=bus_n81 Season=1 Ratings=[400,] emergamps=600 C1=1e-09 x0=1e-09 r0=0 x1=1e-09 length=0.1 normamps=244.0 r1=0 B1=1e-09 B0=1e-09 C0=1e-09 enabled=True
New "Load.c_73_ac-load" bus1=bus_n70 phases=3 pf=0.9939 NumCust=1.0 kV=20.0 kW=43.087606663500004 enabled=True
New "Line.c_73_line" bus1=bus_n81 bus2=bus_n82 Season=1 Ratings=[400,] emergamps=600 C1=1e-09 x0=1e-09 r0=0 x1=1e-09 length=0.1 normamps=166.0 r1=0 B1=1e-09 B0=1e-09 C0=1e-09 enabled=True
New "Load.c_74_ac-load" bus1=bus_n71 phases=3 pf=0.9939 NumCust=1.0 kV=20.0 kW=43.087606663500004 enabled=True
New "Line.c_74_line" bus1=bus_n82 bus2=bus_n83 Season=1 Ratings=[400,] emergamps=600 C1=1e-09 x0=1e-09 r0=0 x1=1e-09 length=0.175 normamps=166.0 r1=0 B1=1e-09 B0=1e-09 C0=1e-09 enabled=True
New "Load.c_75_ac-load" bus1=bus_n72 phases=3 pf=0.9939 NumCust=1.0 kV=20.0 kW=43.087606663500004 enabled=True
New "Line.c_75_line" bus1=bus_n84 bus2=bus_n85 Season=1 Ratings=[400,] emergamps=600 C1=1e-09 x0=1e-09 r0=0 x1=1e-09 length=0.1 normamps=166.0 r1=0 B1=1e-09 B0=1e-09 C0=1e-09 enabled=True
New "Load.c_76_ac-load" bus1=bus_n73 phases=3 pf=0.9939 NumCust=1.0 kV=20.0 kW=26.929754164687502 enabled=True
New "Line.c_76_line" bus1=bus_n85 bus2=bus_n86 Season=1 Ratings=[400,] emergamps=600 C1=1e-09 x0=1e-09 r0=0 x1=1e-09 length=0.38 normamps=166.0 r1=0 B1=1e-09 B0=1e-09 C0=1e-09 enabled=True
New "Load.c_77_ac-load" bus1=bus_n74 phases=3 pf=0.9939 NumCust=1.0 kV=20.0 kW=26.929754164687502 enabled=True
New "Line.c_77_line" bus1=bus_n84 bus2=bus_n87 Season=1 Ratings=[400,] emergamps=600 C1=1e-09 x0=1e-09 r0=0 x1=1e-09 length=0.1 normamps=244.0 r1=0 B1=1e-09 B0=1e-09 C0=1e-09 enabled=True
New "Load.c_78_ac-load" bus1=bus_n75 phases=3 pf=0.9939 NumCust=1.0 kV=20.0 kW=26.929754164687502 enabled=True
New "Line.c_78_line" bus1=bus_n87 bus2=bus_n88 Season=1 Ratings=[400,] emergamps=600 C1=1e-09 x0=1e-09 r0=0 x1=1e-09 length=0.294 normamps=244.0 r1=0 B1=1e-09 B0=1e-09 C0=1e-09 enabled=True
New "Load.c_79_ac-load" bus1=bus_n76 phases=3 pf=0.9939 NumCust=1.0 kV=20.0 kW=26.929754164687502 enabled=True
New "Line.c_79_line" bus1=bus_n87 bus2=bus_n89 Season=1 Ratings=[400,] emergamps=600 C1=1e-09 x0=1e-09 r0=0 x1=1e-09 length=0.1 normamps=244.0 r1=0 B1=1e-09 B0=1e-09 C0=1e-09 enabled=True
New "Load.c_80_ac-load" bus1=bus_n77 phases=3 pf=0.9939 NumCust=1.0 kV=20.0 kW=43.087606663500004 enabled=True
New "Line.c_80_line" bus1=bus_n89 bus2=bus_n90 Season=1 Ratings=[400,] emergamps=600 C1=1e-09 x0=1e-09 r0=0 x1=1e-09 length=0.1 normamps=244.0 r1=0 B1=1e-09 B0=1e-09 C0=1e-09 enabled=True
New "Load.c_81_ac-load" bus1=bus_n78 phases=3 pf=0.9939 NumCust=1.0 kV=20.0 kW=43.087606663500004 enabled=True
New "Line.c_81_line" bus1=bus_n89 bus2=bus_n91 Season=1 Ratings=[400,] emergamps=600 C1=1e-09 x0=1e-09 r0=0 x1=1e-09 length=0.1 normamps=244.0 r1=0 B1=1e-09 B0=1e-09 C0=1e-09 enabled=True
New "Load.c_82_ac-load" bus1=bus_n79 phases=3 pf=0.9939 NumCust=1.0 kV=20.0 kW=26.929754164687502 enabled=True
New "Line.c_82_line" bus1=bus_n91 bus2=bus_n92 Season=1 Ratings=[400,] emergamps=600 C1=1e-09 x0=1e-09 r0=0 x1=1e-09 length=0.27 normamps=244.0 r1=0 B1=1e-09 B0=1e-09 C0=1e-09 enabled=True
New "Line.c_831s_line" bus1=bus_n3 bus2=bus_n109 Season=1 Ratings=[400,] emergamps=600 C1=1e-09 x0=1e-09 r0=0 x1=1e-09 length=0.001 normamps=400.0 r1=0 B1=1e-09 B0=1e-09 C0=1e-09 enabled=True
New "Line.c_832s_line" bus1=bus_n68 bus2=bus_n69 Season=1 Ratings=[400,] emergamps=600 C1=1e-09 x0=1e-09 r0=0 x1=1e-09 length=0.1 normamps=400.0 r1=0 B1=1e-09 B0=1e-09 C0=1e-09 enabled=True
New "Line.c_833s_line" bus1=bus_n68 bus2=bus_n96 Season=1 Ratings=[400,] emergamps=600 C1=1e-09 x0=1e-09 r0=0 x1=1e-09 length=0.1 normamps=400.0 r1=0 B1=1e-09 B0=1e-09 C0=1e-09 enabled=True
New "Line.c_834s_line" bus1=bus_n79 bus2=bus_n86 Season=1 Ratings=[400,] emergamps=600 C1=1e-09 x0=1e-09 r0=0 x1=1e-09 length=0.314 normamps=400.0 r1=0 B1=1e-09 B0=1e-09 C0=1e-09 enabled=True
New "Line.c_837s_line" bus1=bus_n95 bus2=bus_n110 Season=1 Ratings=[400,] emergamps=600 C1=1e-09 x0=1e-09 r0=0 x1=1e-09 length=0.14 normamps=400.0 r1=0 B1=1e-09 B0=1e-09 C0=1e-09 enabled=True
New "Line.c_838s_line" bus1=bus_n110 bus2=bus_n153 Season=1 Ratings=[400,] emergamps=600 C1=1e-09 x0=1e-09 r0=0 x1=1e-09 length=0.1 normamps=400.0 r1=0 B1=1e-09 B0=1e-09 C0=1e-09 enabled=True
New "Line.c_839s_line" bus1=bus_n110 bus2=bus_n177 Season=1 Ratings=[400,] emergamps=600 C1=1e-09 x0=1e-09 r0=0 x1=1e-09 length=0.1 normamps=400.0 r1=0 B1=1e-09 B0=1e-09 C0=1e-09 enabled=True
New "Load.c_83_ac-load" bus1=bus_n80 phases=3 pf=0.9939 NumCust=1.0 kV=20.0 kW=43.087606663500004 enabled=True
New "Line.c_83_line" bus1=bus_n92 bus2=bus_n93 Season=1 Ratings=[400,] emergamps=600 C1=1e-09 x0=1e-09 r0=0 x1=1e-09 length=0.16 normamps=244.0 r1=0 B1=1e-09 B0=1e-09 C0=1e-09 enabled=True
New "Load.c_84_ac-load" bus1=bus_n81 phases=3 pf=0.9939 NumCust=1.0 kV=20.0 kW=43.087606663500004 enabled=True
New "Line.c_84_line" bus1=bus_n91 bus2=bus_n94 Season=1 Ratings=[400,] emergamps=600 C1=1e-09 x0=1e-09 r0=0 x1=1e-09 length=0.1 normamps=244.0 r1=0 B1=1e-09 B0=1e-09 C0=1e-09 enabled=True
New "Load.c_85_ac-load" bus1=bus_n82 phases=3 pf=0.9939 NumCust=1.0 kV=20.0 kW=26.929754164687502 enabled=True
New "Line.c_85_line" bus1=bus_n94 bus2=bus_n95 Season=1 Ratings=[400,] emergamps=600 C1=1e-09 x0=1e-09 r0=0 x1=1e-09 length=0.1 normamps=244.0 r1=0 B1=1e-09 B0=1e-09 C0=1e-09 enabled=True
New "Load.c_86_ac-load" bus1=bus_n83 phases=3 pf=0.9939 NumCust=1.0 kV=20.0 kW=26.929754164687502 enabled=True
New "Line.c_86_line" bus1=bus_n96 bus2=bus_n97 Season=1 Ratings=[400,] emergamps=600 C1=1e-09 x0=1e-09 r0=0 x1=1e-09 length=0.1 normamps=117.0 r1=0 B1=1e-09 B0=1e-09 C0=1e-09 enabled=True
New "Load.c_87_ac-load" bus1=bus_n84 phases=3 pf=0.9939 NumCust=1.0 kV=20.0 kW=26.929754164687502 enabled=True
New "Line.c_87_line" bus1=bus_n97 bus2=bus_n98 Season=1 Ratings=[400,] emergamps=600 C1=1e-09 x0=1e-09 r0=0 x1=1e-09 length=0.1 normamps=166.0 r1=0 B1=1e-09 B0=1e-09 C0=1e-09 enabled=True
New "Load.c_88_ac-load" bus1=bus_n85 phases=3 pf=0.9939 NumCust=1.0 kV=20.0 kW=26.929754164687502 enabled=True
New "Line.c_88_line" bus1=bus_n98 bus2=bus_n99 Season=1 Ratings=[400,] emergamps=600 C1=1e-09 x0=1e-09 r0=0 x1=1e-09 length=0.1 normamps=166.0 r1=0 B1=1e-09 B0=1e-09 C0=1e-09 enabled=True
New "Load.c_89_ac-load" bus1=bus_n86 phases=3 pf=0.9939 NumCust=1.0 kV=20.0 kW=26.929754164687502 enabled=True
New "Line.c_89_line" bus1=bus_n99 bus2=bus_n100 Season=1 Ratings=[400,] emergamps=600 C1=1e-09 x0=1e-09 r0=0 x1=1e-09 length=0.1 normamps=244.0 r1=0 B1=1e-09 B0=1e-09 C0=1e-09 enabled=True
New "Load.c_90_ac-load" bus1=bus_n87 phases=3 pf=0.9939 NumCust=1.0 kV=20.0 kW=26.929754164687502 enabled=True
New "Line.c_90_line" bus1=bus_n100 bus2=bus_n101 Season=1 Ratings=[400,] emergamps=600 C1=1e-09 x0=1e-09 r0=0 x1=1e-09 length=0.1 normamps=244.0 r1=0 B1=1e-09 B0=1e-09 C0=1e-09 enabled=True
New "Load.c_91_ac-load" bus1=bus_n88 phases=3 pf=0.9939 NumCust=1.0 kV=20.0 kW=26.929754164687502 enabled=True
New "Line.c_91_line" bus1=bus_n99 bus2=bus_n102 Season=1 Ratings=[400,] emergamps=600 C1=1e-09 x0=1e-09 r0=0 x1=1e-09 length=0.1 normamps=166.0 r1=0 B1=1e-09 B0=1e-09 C0=1e-09 enabled=True
New "Load.c_92_ac-load" bus1=bus_n89 phases=3 pf=0.9939 NumCust=1.0 kV=20.0 kW=43.087606663500004 enabled=True
New "Line.c_92_line" bus1=bus_n102 bus2=bus_n103 Season=1 Ratings=[400,] emergamps=600 C1=1e-09 x0=1e-09 r0=0 x1=1e-09 length=0.1 normamps=166.0 r1=0 B1=1e-09 B0=1e-09 C0=1e-09 enabled=True
New "Load.c_93_ac-load" bus1=bus_n90 phases=3 pf=0.9939 NumCust=1.0 kV=20.0 kW=26.929754164687502 enabled=True
New "Line.c_93_line" bus1=bus_n103 bus2=bus_n104 Season=1 Ratings=[400,] emergamps=600 C1=1e-09 x0=1e-09 r0=0 x1=1e-09 length=0.1 normamps=166.0 r1=0 B1=1e-09 B0=1e-09 C0=1e-09 enabled=True
New "Load.c_94_ac-load" bus1=bus_n91 phases=3 pf=0.9939 NumCust=1.0 kV=20.0 kW=43.087606663500004 enabled=True
New "Line.c_94_line" bus1=bus_n104 bus2=bus_n105 Season=1 Ratings=[400,] emergamps=600 C1=1e-09 x0=1e-09 r0=0 x1=1e-09 length=0.1 normamps=166.0 r1=0 B1=1e-09 B0=1e-09 C0=1e-09 enabled=True
New "Load.c_95_ac-load" bus1=bus_n93 phases=3 pf=0.9939 NumCust=1.0 kV=20.0 kW=26.929754164687502 enabled=True
New "Line.c_95_line" bus1=bus_n105 bus2=bus_n106 Season=1 Ratings=[400,] emergamps=600 C1=1e-09 x0=1e-09 r0=0 x1=1e-09 length=0.1 normamps=166.0 r1=0 B1=1e-09 B0=1e-09 C0=1e-09 enabled=True
New "Load.c_96_ac-load" bus1=bus_n94 phases=3 pf=0.9939 NumCust=1.0 kV=20.0 kW=43.087606663500004 enabled=True
New "Line.c_96_line" bus1=bus_n106 bus2=bus_n107 Season=1 Ratings=[400,] emergamps=600 C1=1e-09 x0=1e-09 r0=0 x1=1e-09 length=0.1 normamps=166.0 r1=0 B1=1e-09 B0=1e-09 C0=1e-09 enabled=True
New "Load.c_97_ac-load" bus1=bus_n95 phases=3 pf=0.9939 NumCust=1.0 kV=20.0 kW=43.087606663500004 enabled=True
New "Line.c_97_line" bus1=bus_n102 bus2=bus_n108 Season=1 Ratings=[400,] emergamps=600 C1=1e-09 x0=1e-09 r0=0 x1=1e-09 length=0.081 normamps=244.0 r1=0 B1=1e-09 B0=1e-09 C0=1e-09 enabled=True
New "Load.c_98_ac-load" bus1=bus_n110 phases=3 pf=0.9939 NumCust=1.0 kV=20.0 kW=43.087606663500004 enabled=True
New "Line.c_98_line" bus1=bus_n109 bus2=bus_n67 Season=1 Ratings=[400,] emergamps=600 C1=1e-09 x0=1e-09 r0=0 x1=1e-09 length=1.0 normamps=400.0 r1=0 B1=1e-09 B0=1e-09 C0=1e-09 enabled=True
New "Load.c_99_ac-load" bus1=bus_n108 phases=3 pf=0.9939 NumCust=1.0 kV=20.0 kW=43.087606663500004 enabled=True
New "Line.d_100_line" bus1=bus_n112 bus2=bus_n113 Season=1 Ratings=[400,] emergamps=600 C1=1e-09 x0=1e-09 r0=0 x1=1e-09 length=0.161 normamps=244.0 r1=0 B1=1e-09 B0=1e-09 C0=1e-09 enabled=True
New "Load.d_101_ac-load" bus1=bus_n112 phases=3 pf=0.9939 NumCust=1.0 kV=20.0 kW=9.03764992375 enabled=True
New "Line.d_101_line" bus1=bus_n113 bus2=bus_n114 Season=1 Ratings=[400,] emergamps=600 C1=1e-09 x0=1e-09 r0=0 x1=1e-09 length=0.313 normamps=117.0 r1=0 B1=1e-09 B0=1e-09 C0=1e-09 enabled=True
New "Load.d_102_ac-load" bus1=bus_n113 phases=3 pf=0.9939 NumCust=1.0 kV=20.0 kW=22.5330596071875 enabled=True
New "Line.d_102_line" bus1=bus_n114 bus2=bus_n115 Season=1 Ratings=[400,] emergamps=600 C1=1e-09 x0=1e-09 r0=0 x1=1e-09 length=0.05 normamps=117.0 r1=0 B1=1e-09 B0=1e-09 C0=1e-09 enabled=True
New "Load.d_103_ac-load" bus1=bus_n116 phases=3 pf=0.9939 NumCust=1.0 kV=20.0 kW=9.03764992375 enabled=True
New "Line.d_103_line" bus1=bus_n115 bus2=bus_n116 Season=1 Ratings=[400,] emergamps=600 C1=1e-09 x0=1e-09 r0=0 x1=1e-09 length=0.05 normamps=117.0 r1=0 B1=1e-09 B0=1e-09 C0=1e-09 enabled=True
New "Load.d_104_ac-load" bus1=bus_n117 phases=3 pf=0.9939 NumCust=1.0 kV=20.0 kW=9.03764992375 enabled=True
New "Line.d_104_line" bus1=bus_n115 bus2=bus_n117 Season=1 Ratings=[400,] emergamps=600 C1=1e-09 x0=1e-09 r0=0 x1=1e-09 length=0.005 normamps=117.0 r1=0 B1=1e-09 B0=1e-09 C0=1e-09 enabled=True
New "Load.d_105_ac-load" bus1=bus_n119 phases=3 pf=0.9939 NumCust=1.0 kV=20.0 kW=14.411387716250001 enabled=True
New "Line.d_105_line" bus1=bus_n114 bus2=bus_n118 Season=1 Ratings=[400,] emergamps=600 C1=1e-09 x0=1e-09 r0=0 x1=1e-09 length=0.05 normamps=117.0 r1=0 B1=1e-09 B0=1e-09 C0=1e-09 enabled=True
New "Load.d_106_ac-load" bus1=bus_n147 phases=3 pf=0.8944 NumCust=1.0 kV=20.0 kW=12.2130404375 enabled=True
New "Line.d_106_line" bus1=bus_n118 bus2=bus_n119 Season=1 Ratings=[400,] emergamps=600 C1=1e-09 x0=1e-09 r0=0 x1=1e-09 length=0.03 normamps=117.0 r1=0 B1=1e-09 B0=1e-09 C0=1e-09 enabled=True
New "Load.d_107_ac-load" bus1=bus_n126 phases=3 pf=0.9939 NumCust=1.0 kV=20.0 kW=14.411387716250001 enabled=True
New "Line.d_107_line" bus1=bus_n118 bus2=bus_n120 Season=1 Ratings=[400,] emergamps=600 C1=1e-09 x0=1e-09 r0=0 x1=1e-09 length=0.1 normamps=117.0 r1=0 B1=1e-09 B0=1e-09 C0=1e-09 enabled=True
New "Load.d_108_ac-load" bus1=bus_n129 phases=3 pf=0.9939 NumCust=1.0 kV=20.0 kW=3.60528953715 enabled=True
New "Line.d_108_line" bus1=bus_n121 bus2=bus_n122 Season=1 Ratings=[400,] emergamps=600 C1=1e-09 x0=1e-09 r0=0 x1=1e-09 length=0.045 normamps=117.0 r1=0 B1=1e-09 B0=1e-09 C0=1e-09 enabled=True
New "Load.d_109_ac-load" bus1=bus_n134 phases=3 pf=0.9939 NumCust=1.0 kV=20.0 kW=36.0528953715 enabled=True
New "Line.d_109_line" bus1=bus_n121 bus2=bus_n123 Season=1 Ratings=[400,] emergamps=600 C1=1e-09 x0=1e-09 r0=0 x1=1e-09 length=0.07 normamps=117.0 r1=0 B1=1e-09 B0=1e-09 C0=1e-09 enabled=True
New "Load.d_110_ac-load" bus1=bus_n135 phases=3 pf=0.9939 NumCust=1.0 kV=20.0 kW=36.0528953715 enabled=True
New "Line.d_110_line" bus1=bus_n123 bus2=bus_n124 Season=1 Ratings=[400,] emergamps=600 C1=1e-09 x0=1e-09 r0=0 x1=1e-09 length=0.001 normamps=400.0 r1=0 B1=1e-09 B0=1e-09 C0=1e-09 enabled=True
New "Load.d_111_ac-load" bus1=bus_n136 phases=3 pf=0.9939 NumCust=1.0 kV=20.0 kW=22.5330596071875 enabled=True
New "Line.d_111_line" bus1=bus_n124 bus2=bus_n125 Season=1 Ratings=[400,] emergamps=600 C1=1e-09 x0=1e-09 r0=0 x1=1e-09 length=0.12 normamps=117.0 r1=0 B1=1e-09 B0=1e-09 C0=1e-09 enabled=True