New "LineCode.dc-line" nphases=3 x1=0.1 r1=0.123
