New "Generator.a_ac-pv" bus1=bt_node_b phases=3 kvar=0 model=3 kW=70 kv=0.4 enabled=true
New "Generator.b_ac-pv" bus1=bt_node_c phases=3 kvar=0 model=3 kW=12 kv=0.23 enabled=true
New "Generator.c_pv" bus1=lv_bus phases=3 kvar=0 model=3 kW=150 kv=0.4 enabled=true
