New "Generator.pv001" bus1=N001 phases=3 kv=20 kW=350 kvar=0
New "Generator.pv005" bus1=N005 phases=3 kv=20 kW=400 kvar=0
New "Generator.pv006" bus1=N006 phases=3 kv=20 kW=300 kvar=0
New "Generator.pv007" bus1=N007 phases=3 kv=20 kW=450 kvar=0
New "Generator.bess014" bus1=N014 phases=3 kv=20 kW=0.001 kvar=0
