New "Line.line_mt" bus1=sourcebus bus2=mt_node_1 Seasons=1 Ratings=[400,] emergamps=600 r0=0 length=3.5 B0=1E-009 r1=0 x0=1E-009 normamps=400.0 x1=1E-009 B1=1E-009 enabled=true
New "Line.line_bt_1" bus1=lv_bus bus2=bt_node_a Seasons=1 Ratings=[400,] emergamps=600 r0=0 length=0.2 B0=1E-009 r1=0 x0=1E-009 normamps=400.0 x1=1E-009 B1=1E-009 enabled=true
New "Line.line_bt_2" bus1=bt_node_a bus2=bt_node_b Seasons=1 Ratings=[400,] emergamps=600 r0=0 length=0.15 B0=1E-009 r1=0 x0=1E-009 normamps=400.0 x1=1E-009 B1=1E-009 enabled=true
New "Line.line_bt_3" bus1=bt_node_a bus2=bt_node_c Seasons=1 Ratings=[400,] emergamps=600 r0=0 length=0.3 B0=1E-009 r1=0 x0=1E-009 normamps=400.0 x1=1E-009 B1=1E-009 enabled=true
