New "LineCode.mt_line" nphases=3 r1=0.15 x1=0.25 r0=0.5 x0=0.7 C1=3 C0=1.5 units=km
New "LineCode.bt_line" nphases=3 r1=0.25 x1=0.08 r0=0.8 x0=0.2 C1=15 C0=7.5 units=km
