New "Transformer.trsource-001" windings=2 buses=[sourcebus, n001, ] conns=[delta, wye, ] kVs=[110, 20, ] kVAs=[4000, 4000, ] %Rs=[0, 0, ] XHL=0.03 %imag=0
