New "Generator.nome elemento (1) (1)" bus1=sourcebus phases=3 kW=284.46 kv=2 enabled=true
