New "LineCode.linetype" nphases=3 r1=1E-006 x1=1E-006 B1=1E-006
