New "Line.line12" bus1=b1.1.2.3 bus2=b2.1.2.3 linecode=ug Seasons=1 Ratings=[400,] normamps=400 emergamps=600 length=0.15 units=km
New "Line.line23" bus1=b2.1.2.3 bus2=b3.1.2.3 linecode=racoon Seasons=1 Ratings=[400,] normamps=400 emergamps=600 length=2.62 units=km
New "Line.line34" bus1=b3.1.2.3 bus2=b4.1.2.3 linecode=moon Seasons=1 Ratings=[400,] normamps=400 emergamps=600 length=1.68 units=km
New "Line.line45" bus1=b4.1.2.3 bus2=b5.1.2.3 linecode=tr Seasons=1 Ratings=[400,] normamps=400 emergamps=600 length=1 units=km
New "Line.line56" bus1=b5.1.2.3 bus2=b6.1.2.3 linecode=moon Seasons=1 Ratings=[400,] normamps=400 emergamps=600 length=1 units=km
New "Line.line67" bus1=b6.1.2.3 bus2=b7.1.2.3 linecode=moon Seasons=1 Ratings=[400,] normamps=400 emergamps=600 length=1.2 units=km
New "Line.line78" bus1=b7.1.2.3 bus2=b8.1.2.3 linecode=moon Seasons=1 Ratings=[400,] normamps=400 emergamps=600 length=0.8 units=km
