New "Line.nome elemento" bus1=sourcebus bus2=bb1 Seasons=1 Ratings=[400,] emergamps=600 normamps=100.0 x1=1E-005 B1=0.001 x0=1E-005 B0=0.001 r0=0.001 length=1 r1=0.001 enabled=true
