New "Line.ug_line" linecode=12-20_3x1x185al bus1=sourcebus bus2=ug_bb_20kv Seasons=1 Ratings=[400,] emergamps=600 normamps=400.0 length=3
New "Line.rs_line" linecode=12-20_3x1x185al bus1=sourcebus bus2=rs_bb_20kv Seasons=1 Ratings=[400,] emergamps=600 normamps=400.0 length=3
New "Line.ev-charge_line" linecode=6-12_3x1x150cu bus1=rs_bb_04kv bus2=ev-charge_bb Seasons=1 Ratings=[400,] emergamps=600 normamps=400.0 length=0.05
New "Line.res-wpg_line" linecode=12-20_3x1x185al bus1=sourcebus bus2=res-wpg_bb Seasons=1 Ratings=[400,] emergamps=600 normamps=400.0 length=2
New "Line.user_line" linecode=6-12_3x1x150cu bus1=res_bb bus2=user_bb Seasons=1 Ratings=[400,] emergamps=600 normamps=400.0 length=0.1
New "Line.pros_line" linecode=6-12_3x1x150cu bus1=res_bb bus2=pros_bb Seasons=1 Ratings=[400,] emergamps=600 normamps=400.0 length=0.05
New "Line.wpg_line" linecode=3-6_3x1x240cu bus1=wpg_bb1 bus2=wpg_bb2 Seasons=1 Ratings=[400,] emergamps=600 normamps=400.0 length=1
New "Line.pros-ev_dc-line" linecode=dc-line bus1=pros1_dc-bb bus2=ev-fast_dc-bb Seasons=1 Ratings=[400,] emergamps=600 normamps=400.0 length=0.02
