New "Line.sbla_1_line" bus1=sourcebus bus2=bus_n1 Seasons=1 Ratings=[400,] emergamps=600 C0=3.183099E-009 B1=3.141593E-010 B0=1E-009 length=0.01 r0=0 r1=0 C1=1E-009 normamps=313.0 x0=1E-009 x1=1E-009 enabled=true
