New "LineCode.dc-line" nphases=3 r1=0.123 x1=0.1
