New "Load.nome elemento (1)" bus1=bb1 phases=3 kW=121.35816 pf=1 NumCust=1.0 kV=2 enabled=true
New "Load.carico1" bus1=bb1 phases=3 kW=303.3954 pf=1 NumCust=1.0 kV=2 enabled=true
