New "Load.carico" bus1=bus_n1 phases=3 kW=100 pf=1 NumCust=1.0 kV=150 enabled=true
