New "Load.load8a" bus1=b8.1 kV=11 kW=2000 pf=1 phases=1 model=3
New "Load.load8b" bus1=b8.2 kV=11 kW=2000 pf=1 phases=1 model=1
New "Load.load8c" bus1=b8.3 kV=11 kW=2000 pf=1 phases=1 model=1
