New "Transformer.tra_tr" buses=[bus_n1, bus_n3, ] windings=2 conns=[delta, wye, ] %imag=0 kVs=[150, 21.2, ] kVAs=[30000, 30000, ] XHL=9.78 %Rs=[0.375, 0.375, ] enabled=true
New "Transformer.trb_tr" buses=[bus_n2, bus_n4, ] windings=2 conns=[delta, wye, ] %imag=0 kVs=[150, 20.8, ] kVAs=[31250, 31250, ] XHL=14.59 %Rs=[0.36, 0.36, ] enabled=true
