New "Transformer.trf1" phases=3 windings=2 XHL=12.01 sub=y buses=[sourcebus, n_002, ] conns=[wye, wye, ] kVs=[150, 20.8, ] kVAs=[25000, 25000, ] taps=[1, 1, ] wdg=1 %R=0.225 RdcOhms=0.57375 wdg=2 %R=0.225 RdcOhms=0.01103232 NumTaps=20 MaxTap=1.1 MinTap=0.9
