New "Transformer.trf1" buses=[sourcebus, n_002, ] windings=2 conns=[delta, wye, ] kVAs=[25000, 25000, ] XHL=12.01 %imag=0 kVs=[150, 20, ] %Rs=[0.225, 0.225, ] enabled=true
