New "Transformer.trf1" buses=[sourcebus, n_002, ] windings=2 conns=[delta, wye, ] %Rs=[0.225, 0.225, ] %imag=0 kVs=[150, 20, ] XHL=12.01 kVAs=[25000, 25000, ] enabled=true
