New "Transformer.trf1" buses=[sourcebus, n_002, ] conns=[wye, wye, ] kVs=[150, 20, ] kVAs=[25000, 25000, ] %Rs=[0.225, 0.225, ] XHL=12.01 %imag=0
