New "Transformer.trf1" buses=[n_001, n_002, ] windings=2 conns=[delta, wye, ] XHL=12.01 kVAs=[25000, 25000, ] kVs=[150, 20.8, ] %Rs=[0, 0.2, ] %imag=0 enabled=true
