New "Transformer.trf1" buses=[n_001, n_002, ] windings=2 conns=[delta, wye, ] %imag=0 kVAs=[25000, 25000, ] kVs=[150, 20.8, ] XHL=12.01 %Rs=[0, 0.2, ] enabled=true
