New "Transformer.trf1" buses=[n_001, n_002, ] windings=2 conns=[delta, wye, ] %Rs=[0, 0.2, ] %imag=0 kVAs=[25000, 25000, ] XHL=12.01 kVs=[150, 20.8, ] enabled=true
