New "Transformer.trf1" buses=[n_001, n_002, ] windings=2 conns=[delta, wye, ] kVs=[150, 20.8, ] kVAs=[25000, 25000, ] %Rs=[0, 0.2, ] %imag=0 XHL=12.01 enabled=true
