!New Transformer.Trf1 phases=3 windings=2 xhl=12.010000 sub=y wdg=1 Sourcebus wye 150.000000 25000.000000 1 0.225000 wdg=2 N_002 wye 20.00000 25000.000000 1 0.225000
!buses=(UG_BB_20kV UG_BB1_2kVs) conns='delta wye' kvs=(20 2) kvas=(2000 2000) %Rs=[0.93 0] XHL=6 %imag=0
New Transformer.Trf1 buses=(Sourcebus n_002) conns='wye wye'  kvs=(150 20) kvas=(25000 25000) %Rs=[0.225 0.225] xhl=12.01 %imag=0
