New Loadshape.G2 npts=8760 interval=1.000000 mult=[0           0           0           0           0           0           0           0    0.011699    0.039736    0.058497    0.086533     0.10529     0.10529    0.081896    0.046798    0.028036    0.011699           0           0           0           0           0           0           0           0           0           0           0           0           0           0    0.011699    0.039736    0.058497    0.086533     0.10529     0.10529    0.081896    0.046798    0.028036    0.011699           0           0           0           0           0           0           0           0           0           0           0           0           0           0    0.011699    0.039736    0.058497    0.086533     0.10529     0.10529    0.081896    0.046798    0.028036    0.011699           0           0           0           0           0           0           0           0           0           0           0           0           0           0    0.011699    0.039736    0.058497    0.086533     0.10529     0.10529    0.081896    0.046798    0.028036    0.011699           0           0           0           0           0           0           0           0           0           0           0           0           0           0    0.011699    0.039736    0.058497    0.086533     0.10529     0.10529    0.081896    0.046798    0.028036    0.011699           0           0           0           0           0           0           0           0           0           0           0           0           0           0    0.011699    0.039736    0.058497    0.086533     0.10529     0.10529    0.081896    0.046798    0.028036    0.011699           0           0           0           0           0           0           0           0           0           0           0           0           0           0    0.011699    0.039736    0.058497    0.086533     0.10529     0.10529    0.081896    0.046798    0.028036    0.011699           0           0           0           0           0           0           0           0           0           0           0           0           0           0    0.011699    0.039736    0.058497    0.086533     0.10529     0.10529    0.081896    0.046798    0.028036    0.011699           0           0           0           0           0           0           0           0           0           0           0           0           0           0    0.011699    0.039736    0.058497    0.086533     0.10529     0.10529    0.081896    0.046798    0.028036    0.011699           0           0           0           0           0           0           0           0           0           0           0           0           0           0    0.011699    0.039736    0.058497    0.086533     0.10529     0.10529    0.081896    0.046798    0.028036    0.011699           0           0           0           0           0           0           0           0           0           0           0           0           0           0    0.011699    0.039736    0.058497    0.086533     0.10529     0.10529    0.081896    0.046798    0.028036    0.011699           0           0           0           0           0           0           0           0           0           0           0           0           0           0    0.011699    0.039736    0.058497    0.086533     0.10529     0.10529    0.081896    0.046798    0.028036    0.011699           0           0           0           0           0           0           0           0           0           0           0           0           0           0    0.011699    0.039736    0.058497    0.086533     0.10529     0.10529    0.081896    0.046798    0.028036    0.011699           0           0           0           0           0           0           0           0           0           0           0           0           0           0    0.011699    0.039736    0.058497    0.086533     0.10529     0.10529    0.081896    0.046798    0.028036    0.011699           0           0           0           0           0           0           0           0           0           0           0           0           0           0    0.011699    0.039736    0.058497    0.086533     0.10529     0.10529    0.081896    0.046798    0.028036    0.011699           0           0           0           0           0           0           0           0           0           0           0           0           0           0    0.011699    0.039736    0.058497    0.086533     0.10529     0.10529    0.081896    0.046798    0.028036    0.011699           0           0           0           0           0           0           0           0           0           0           0           0           0           0    0.011699    0.039736    0.058497    0.086533     0.10529     0.10529    0.081896    0.046798    0.028036    0.011699           0           0           0           0           0           0           0           0           0           0           0           0           0           0    0.011699    0.039736    0.058497    0.086533     0.10529     0.10529    0.081896    0.046798    0.028036    0.011699           0           0           0           0           0           0           0           0           0           0           0           0           0           0    0.011699    0.039736    0.058497    0.086533     0.10529     0.10529    0.081896    0.046798    0.028036    0.011699           0           0           0           0           0           0           0           0           0           0           0           0           0           0    0.011699    0.039736    0.058497    0.086533     0.10529     0.10529    0.081896    0.046798    0.028036    0.011699           0           0           0           0           0           0           0           0           0           0           0           0           0           0    0.011699    0.039736    0.058497    0.086533     0.10529     0.10529    0.081896    0.046798    0.028036    0.011699           0           0           0           0           0           0           0           0           0           0           0           0           0           0    0.011699    0.039736    0.058497    0.086533     0.10529     0.10529    0.081896    0.046798    0.028036    0.011699           0           0           0           0           0           0           0           0           0           0           0           0           0           0    0.011699    0.039736    0.058497    0.086533     0.10529     0.10529    0.081896    0.046798    0.028036    0.011699           0           0           0           0           0           0           0           0           0           0           0           0           0           0    0.011699    0.039736    0.058497    0.086533     0.10529     0.10529    0.081896    0.046798    0.028036    0.011699           0           0           0           0           0           0           0           0           0           0           0           0           0           0    0.011699    0.039736    0.058497    0.086533     0.10529     0.10529    0.081896    0.046798    0.028036    0.011699           0           0           0           0           0           0           0           0           0           0           0           0           0           0    0.011699    0.039736    0.058497    0.086533     0.10529     0.10529    0.081896    0.046798    0.028036    0.011699           0           0           0           0           0           0           0           0           0           0           0           0           0           0    0.011699    0.039736    0.058497    0.086533     0.10529     0.10529    0.081896    0.046798    0.028036    0.011699           0           0           0           0           0           0           0           0           0           0           0           0           0           0    0.011699    0.039736    0.058497    0.086533     0.10529     0.10529    0.081896    0.046798    0.028036    0.011699           0           0           0           0           0           0           0           0           0           0           0           0           0           0    0.011699    0.039736    0.058497    0.086533     0.10529     0.10529    0.081896    0.046798    0.028036    0.011699           0           0           0           0           0           0           0           0           0           0           0           0           0           0    0.011699    0.039736    0.058497    0.086533     0.10529     0.10529    0.081896    0.046798    0.028036    0.011699           0           0           0           0           0           0           0           0           0           0           0           0           0           0    0.011699    0.039736    0.058497    0.086533     0.10529     0.10529    0.081896    0.046798    0.028036    0.011699           0           0           0           0           0           0           0           0           0           0           0           0           0           0    0.033872     0.11504     0.16936     0.25053     0.30484     0.30484      0.2371     0.13549     0.08117    0.033872           0           0           0           0           0           0           0           0           0           0           0           0           0           0    0.033872     0.11504     0.16936     0.25053     0.30484     0.30484      0.2371     0.13549     0.08117    0.033872           0           0           0           0           0           0           0           0           0           0           0           0           0           0    0.033872     0.11504     0.16936     0.25053     0.30484     0.30484      0.2371     0.13549     0.08117    0.033872           0           0           0           0           0           0           0           0           0           0           0           0           0           0    0.033872     0.11504     0.16936     0.25053     0.30484     0.30484      0.2371     0.13549     0.08117    0.033872           0           0           0           0           0           0           0           0           0           0           0           0           0           0    0.033872     0.11504     0.16936     0.25053     0.30484     0.30484      0.2371     0.13549     0.08117    0.033872           0           0           0           0           0           0           0           0           0           0           0           0           0           0    0.033872     0.11504     0.16936     0.25053     0.30484     0.30484      0.2371     0.13549     0.08117    0.033872           0           0           0           0           0           0           0           0           0           0           0           0           0           0    0.033872     0.11504     0.16936     0.25053     0.30484     0.30484      0.2371     0.13549     0.08117    0.033872           0           0           0           0           0           0           0           0           0           0           0           0           0           0    0.033872     0.11504     0.16936     0.25053     0.30484     0.30484      0.2371     0.13549     0.08117    0.033872           0           0           0           0           0           0           0           0           0           0           0           0           0           0    0.033872     0.11504     0.16936     0.25053     0.30484     0.30484      0.2371     0.13549     0.08117    0.033872           0           0           0           0           0           0           0           0           0           0           0           0           0           0    0.033872     0.11504     0.16936     0.25053     0.30484     0.30484      0.2371     0.13549     0.08117    0.033872           0           0           0           0           0           0           0           0           0           0           0           0           0           0    0.033872     0.11504     0.16936     0.25053     0.30484     0.30484      0.2371     0.13549     0.08117    0.033872           0           0           0           0           0           0           0           0           0           0           0           0           0           0    0.033872     0.11504     0.16936     0.25053     0.30484     0.30484      0.2371     0.13549     0.08117    0.033872           0           0           0           0           0           0           0           0           0           0           0           0           0           0    0.033872     0.11504     0.16936     0.25053     0.30484     0.30484      0.2371     0.13549     0.08117    0.033872           0           0           0           0           0           0           0           0           0           0           0           0           0           0    0.033872     0.11504     0.16936     0.25053     0.30484     0.30484      0.2371     0.13549     0.08117    0.033872           0           0           0           0           0           0           0           0           0           0           0           0           0           0    0.033872     0.11504     0.16936     0.25053     0.30484     0.30484      0.2371     0.13549     0.08117    0.033872           0           0           0           0           0           0           0           0           0           0           0           0           0           0    0.033872     0.11504     0.16936     0.25053     0.30484     0.30484      0.2371     0.13549     0.08117    0.033872           0           0           0           0           0           0           0           0           0           0           0           0           0           0    0.033872     0.11504     0.16936     0.25053     0.30484     0.30484      0.2371     0.13549     0.08117    0.033872           0           0           0           0           0           0           0           0           0           0           0           0           0           0    0.033872     0.11504     0.16936     0.25053     0.30484     0.30484      0.2371     0.13549     0.08117    0.033872           0           0           0           0           0           0           0           0           0           0           0           0           0           0    0.033872     0.11504     0.16936     0.25053     0.30484     0.30484      0.2371     0.13549     0.08117    0.033872           0           0           0           0           0           0           0           0           0           0           0           0           0           0    0.033872     0.11504     0.16936     0.25053     0.30484     0.30484      0.2371     0.13549     0.08117    0.033872           0           0           0           0           0           0           0           0           0           0           0           0           0           0    0.033872     0.11504     0.16936     0.25053     0.30484     0.30484      0.2371     0.13549     0.08117    0.033872           0           0           0           0           0           0           0           0           0           0           0           0           0           0    0.033872     0.11504     0.16936     0.25053     0.30484     0.30484      0.2371     0.13549     0.08117    0.033872           0           0           0           0           0           0           0           0           0           0           0           0           0           0    0.033872     0.11504     0.16936     0.25053     0.30484     0.30484      0.2371     0.13549     0.08117    0.033872           0           0           0           0           0           0           0           0           0           0           0           0           0           0    0.033872     0.11504     0.16936     0.25053     0.30484     0.30484      0.2371     0.13549     0.08117    0.033872           0           0           0           0           0           0           0           0           0           0           0           0           0           0    0.033872     0.11504     0.16936     0.25053     0.30484     0.30484      0.2371     0.13549     0.08117    0.033872           0           0           0           0           0           0           0           0           0           0           0           0           0           0    0.033872     0.11504     0.16936     0.25053     0.30484     0.30484      0.2371     0.13549     0.08117    0.033872           0           0           0           0           0           0           0           0           0           0           0           0           0           0    0.033872     0.11504     0.16936     0.25053     0.30484     0.30484      0.2371     0.13549     0.08117    0.033872           0           0           0           0           0           0           0           0           0           0           0           0           0           0    0.033872     0.11504     0.16936     0.25053     0.30484     0.30484      0.2371     0.13549     0.08117    0.033872           0           0           0           0           0           0           0           0           0           0           0           0           0           0    0.046703     0.15862     0.23352     0.34544     0.42033     0.42033     0.32692     0.18681     0.11192    0.046703           0           0           0           0           0           0           0           0           0           0           0           0           0           0    0.046703     0.15862     0.23352     0.34544     0.42033     0.42033     0.32692     0.18681     0.11192    0.046703           0           0           0           0           0           0           0           0           0           0           0           0           0           0    0.046703     0.15862     0.23352     0.34544     0.42033     0.42033     0.32692     0.18681     0.11192    0.046703           0           0           0           0           0           0           0           0           0           0           0           0           0           0    0.046703     0.15862     0.23352     0.34544     0.42033     0.42033     0.32692     0.18681     0.11192    0.046703           0           0           0           0           0           0           0           0           0           0           0           0           0           0    0.046703     0.15862     0.23352     0.34544     0.42033     0.42033     0.32692     0.18681     0.11192    0.046703           0           0           0           0           0           0           0           0           0           0           0           0           0           0    0.046703     0.15862     0.23352     0.34544     0.42033     0.42033     0.32692     0.18681     0.11192    0.046703           0           0           0           0           0           0           0           0           0           0           0           0           0           0    0.046703     0.15862     0.23352     0.34544     0.42033     0.42033     0.32692     0.18681     0.11192    0.046703           0           0           0           0           0           0           0           0           0           0           0           0           0           0    0.046703     0.15862     0.23352     0.34544     0.42033     0.42033     0.32692     0.18681     0.11192    0.046703           0           0           0           0           0           0           0           0           0           0           0           0           0           0    0.046703     0.15862     0.23352     0.34544     0.42033     0.42033     0.32692     0.18681     0.11192    0.046703           0           0           0           0           0           0           0           0           0           0           0           0           0           0    0.046703     0.15862     0.23352     0.34544     0.42033     0.42033     0.32692     0.18681     0.11192    0.046703           0           0           0           0           0           0           0           0           0           0           0           0           0           0    0.046703     0.15862     0.23352     0.34544     0.42033     0.42033     0.32692     0.18681     0.11192    0.046703           0           0           0           0           0           0           0           0           0           0           0           0           0           0    0.046703     0.15862     0.23352     0.34544     0.42033     0.42033     0.32692     0.18681     0.11192    0.046703           0           0           0           0           0           0           0           0           0           0           0           0           0           0    0.046703     0.15862     0.23352     0.34544     0.42033     0.42033     0.32692     0.18681     0.11192    0.046703           0           0           0           0           0           0           0           0           0           0           0           0           0           0    0.046703     0.15862     0.23352     0.34544     0.42033     0.42033     0.32692     0.18681     0.11192    0.046703           0           0           0           0           0           0           0           0           0           0           0           0           0           0    0.046703     0.15862     0.23352     0.34544     0.42033     0.42033     0.32692     0.18681     0.11192    0.046703           0           0           0           0           0           0           0           0           0           0           0           0           0           0    0.046703     0.15862     0.23352     0.34544     0.42033     0.42033     0.32692     0.18681     0.11192    0.046703           0           0           0           0           0           0           0           0           0           0           0           0           0           0    0.046703     0.15862     0.23352     0.34544     0.42033     0.42033     0.32692     0.18681     0.11192    0.046703           0           0           0           0           0           0           0           0           0           0           0           0           0           0    0.046703     0.15862     0.23352     0.34544     0.42033     0.42033     0.32692     0.18681     0.11192    0.046703           0           0           0           0           0           0           0           0           0           0           0           0           0           0    0.046703     0.15862     0.23352     0.34544     0.42033     0.42033     0.32692     0.18681     0.11192    0.046703           0           0           0           0           0           0           0           0           0           0           0           0           0           0    0.046703     0.15862     0.23352     0.34544     0.42033     0.42033     0.32692     0.18681     0.11192    0.046703           0           0           0           0           0           0           0           0           0           0           0           0           0           0    0.046703     0.15862     0.23352     0.34544     0.42033     0.42033     0.32692     0.18681     0.11192    0.046703           0           0           0           0           0           0           0           0           0           0           0           0           0           0    0.046703     0.15862     0.23352     0.34544     0.42033     0.42033     0.32692     0.18681     0.11192    0.046703           0           0           0           0           0           0           0           0           0           0           0           0           0           0    0.046703     0.15862     0.23352     0.34544     0.42033     0.42033     0.32692     0.18681     0.11192    0.046703           0           0           0           0           0           0           0           0           0           0           0           0           0           0    0.046703     0.15862     0.23352     0.34544     0.42033     0.42033     0.32692     0.18681     0.11192    0.046703           0           0           0           0           0           0           0           0           0           0           0           0           0           0    0.046703     0.15862     0.23352     0.34544     0.42033     0.42033     0.32692     0.18681     0.11192    0.046703           0           0           0           0           0           0           0           0           0           0           0           0           0           0    0.046703     0.15862     0.23352     0.34544     0.42033     0.42033     0.32692     0.18681     0.11192    0.046703           0           0           0           0           0           0           0           0           0           0           0           0           0           0    0.046703     0.15862     0.23352     0.34544     0.42033     0.42033     0.32692     0.18681     0.11192    0.046703           0           0           0           0           0           0           0           0           0           0           0           0           0           0    0.046703     0.15862     0.23352     0.34544     0.42033     0.42033     0.32692     0.18681     0.11192    0.046703           0           0           0           0           0           0           0           0           0           0           0           0           0           0    0.046703     0.15862     0.23352     0.34544     0.42033     0.42033     0.32692     0.18681     0.11192    0.046703           0           0           0           0           0           0           0           0           0           0           0           0           0           0    0.046703     0.15862     0.23352     0.34544     0.42033     0.42033     0.32692     0.18681     0.11192    0.046703           0           0           0           0           0           0           0           0           0           0           0           0           0           0    0.046703     0.15862     0.23352     0.34544     0.42033     0.42033     0.32692     0.18681     0.11192    0.046703           0           0           0           0           0           0           0           0           0           0           0           0           0           0    0.045665      0.1551     0.22833     0.33776     0.41099     0.41099     0.31966     0.18266     0.10943    0.045665           0           0           0           0           0           0           0           0           0           0           0           0           0           0    0.045665      0.1551     0.22833     0.33776     0.41099     0.41099     0.31966     0.18266     0.10943    0.045665           0           0           0           0           0           0           0           0           0           0           0           0           0           0    0.045665      0.1551     0.22833     0.33776     0.41099     0.41099     0.31966     0.18266     0.10943    0.045665           0           0           0           0           0           0           0           0           0           0           0           0           0           0    0.045665      0.1551     0.22833     0.33776     0.41099     0.41099     0.31966     0.18266     0.10943    0.045665           0           0           0           0           0           0           0           0           0           0           0           0           0           0    0.045665      0.1551     0.22833     0.33776     0.41099     0.41099     0.31966     0.18266     0.10943    0.045665           0           0           0           0           0           0           0           0           0           0           0           0           0           0    0.045665      0.1551     0.22833     0.33776     0.41099     0.41099     0.31966     0.18266     0.10943    0.045665           0           0           0           0           0           0           0           0           0           0           0           0           0           0    0.045665      0.1551     0.22833     0.33776     0.41099     0.41099     0.31966     0.18266     0.10943    0.045665           0           0           0           0           0           0           0           0           0           0           0           0           0           0    0.045665      0.1551     0.22833     0.33776     0.41099     0.41099     0.31966     0.18266     0.10943    0.045665           0           0           0           0           0           0           0           0           0           0           0           0           0           0    0.045665      0.1551     0.22833     0.33776     0.41099     0.41099     0.31966     0.18266     0.10943    0.045665           0           0           0           0           0           0           0           0           0           0           0           0           0           0    0.045665      0.1551     0.22833     0.33776     0.41099     0.41099     0.31966     0.18266     0.10943    0.045665           0           0           0           0           0           0           0           0           0           0           0           0           0           0    0.045665      0.1551     0.22833     0.33776     0.41099     0.41099     0.31966     0.18266     0.10943    0.045665           0           0           0           0           0           0           0           0           0           0           0           0           0           0    0.045665      0.1551     0.22833     0.33776     0.41099     0.41099     0.31966     0.18266     0.10943    0.045665           0           0           0           0           0           0           0           0           0           0           0           0           0           0    0.045665      0.1551     0.22833     0.33776     0.41099     0.41099     0.31966     0.18266     0.10943    0.045665           0           0           0           0           0           0           0           0           0           0           0           0           0           0    0.045665      0.1551     0.22833     0.33776     0.41099     0.41099     0.31966     0.18266     0.10943    0.045665           0           0           0           0           0           0        